<?xml version="1.0" encoding="iso-8859-1"?>

<configuration xmlns:xsi="http://www.w3.org/2001/XMLSchema-instance" xsi:noNamespaceSchemaLocation="http://sumo.sf.net/xsd/sumoConfiguration.xsd">

    <input>
        <net-file value="map.net.xml"/>
        <load-state value="state_15150.00.xml"/>
        <load-state.offset value="-15150"/>
        <route-files value="sim.rou.xml"/>
        <additional-files value="map.poly.xml"/>
    </input>

    <processing>
    	<time-to-teleport value="-1"/>
    	<time-to-impatience value="3"/>
        <eager-insert value="true"/>
    </processing>

    <output>

    </output>

    <time>
    	<begin value="0"/>
    	<end value="30000"/>
    </time>

    <report>
        <no-duration-log value="true"/>
        <no-step-log value="true"/>
    </report>

</configuration>
